Version 4
SHEET 1 5808 1124
WIRE 592 112 592 80
WIRE 2800 160 2656 160
WIRE 2944 160 2800 160
WIRE 2960 160 2944 160
WIRE 2304 176 2224 176
WIRE 2368 176 2304 176
WIRE 2656 176 2656 160
WIRE 1824 192 1776 192
WIRE 1904 192 1824 192
WIRE 2224 192 2224 176
WIRE 2368 192 2368 176
WIRE 448 224 368 224
WIRE 592 224 592 192
WIRE 592 224 512 224
WIRE 2800 240 2800 160
WIRE -384 256 -384 224
WIRE 144 256 144 208
WIRE 1168 272 1168 256
WIRE 1776 272 1776 192
WIRE 2368 288 2368 272
WIRE 2400 288 2368 288
WIRE 2576 288 2400 288
WIRE 2656 288 2656 256
WIRE 2656 288 2640 288
WIRE 2688 288 2656 288
WIRE 2736 288 2688 288
WIRE 2960 288 2960 160
WIRE 592 320 592 224
WIRE 1312 320 1312 288
WIRE 1344 320 1312 320
WIRE 1424 320 1344 320
WIRE 1664 320 1488 320
WIRE 1904 336 1904 272
WIRE 2096 336 1904 336
WIRE 2224 336 2224 272
WIRE 2224 336 2160 336
WIRE 2272 336 2224 336
WIRE 2304 336 2272 336
WIRE 2656 336 2656 288
WIRE 2880 336 2800 336
WIRE 2896 336 2880 336
WIRE -384 352 -384 336
WIRE 144 368 144 336
WIRE 368 368 368 224
WIRE 368 368 144 368
WIRE 1040 368 640 368
WIRE 1168 368 1168 352
WIRE 1168 368 1104 368
WIRE 1232 368 1168 368
WIRE 1248 368 1232 368
WIRE 1664 384 1664 320
WIRE 1776 384 1776 352
WIRE 1776 384 1664 384
WIRE 1840 384 1776 384
WIRE 3040 384 2960 384
WIRE 3120 384 3104 384
WIRE 3168 384 3120 384
WIRE 144 400 144 368
WIRE 1168 400 1168 368
WIRE 1248 400 1248 368
WIRE 1264 400 1248 400
WIRE 2224 400 2224 336
WIRE 2960 400 2960 384
WIRE 1776 416 1776 384
WIRE 2368 432 2368 384
WIRE 2960 432 2960 400
WIRE 2368 448 2368 432
WIRE 2448 448 2368 448
WIRE 2544 448 2512 448
WIRE -224 464 -400 464
WIRE -128 464 -224 464
WIRE 96 464 -128 464
WIRE 1904 464 1904 432
WIRE 1952 464 1904 464
WIRE 2048 464 2016 464
WIRE 3168 480 3168 464
WIRE 2544 496 2544 448
WIRE 368 512 368 368
WIRE 416 512 368 512
WIRE 592 512 592 400
WIRE 592 512 496 512
WIRE 1168 512 1168 480
WIRE 1312 512 1312 496
WIRE 1440 512 1312 512
WIRE 2224 512 2224 480
WIRE 2656 512 2656 416
WIRE -400 528 -400 464
WIRE -128 528 -128 464
WIRE 1312 528 1312 512
WIRE 592 544 592 512
WIRE 1440 544 1440 512
WIRE 144 560 144 496
WIRE 2544 592 2544 576
WIRE 592 640 592 608
WIRE 1168 640 1168 608
WIRE 1440 640 1440 608
WIRE -400 688 -400 608
WIRE -128 688 -128 608
WIRE -128 688 -400 688
WIRE 144 688 144 640
WIRE 144 688 -128 688
WIRE 144 736 144 688
WIRE 1168 752 1168 720
WIRE 1248 752 1168 752
WIRE 1632 768 1424 768
WIRE 1168 784 1168 752
WIRE 1520 784 1520 720
WIRE 1696 784 1696 736
WIRE 1248 832 1248 752
WIRE 1248 832 1232 832
WIRE 1360 832 1248 832
WIRE 1424 832 1424 768
WIRE 1424 832 1360 832
WIRE 1456 832 1424 832
WIRE 1632 832 1632 768
WIRE 1168 928 1168 880
WIRE 1520 928 1520 880
WIRE 1696 928 1696 880
FLAG 144 736 0
FLAG -384 352 0
FLAG -384 224 VCC
FLAG 144 208 VCC
FLAG -224 464 Vin
FLAG 592 640 0
FLAG 592 80 VCC
FLAG 2944 160 VCC
FLAG 2960 512 0
FLAG 2656 512 0
FLAG 2880 336 VB2
FLAG 2688 288 VB1
FLAG 2960 400 VE2
FLAG 2224 512 0
FLAG 2304 176 VCC
FLAG 2272 336 VB3
FLAG 3168 480 0
FLAG 2960 288 VC2
FLAG 2400 288 VC3
FLAG 2368 432 VE3
FLAG 1168 928 0
FLAG 1168 608 VCC
FLAG 1168 256 VCC
FLAG 1168 512 0
FLAG 1312 208 VCC
FLAG 1344 320 VC4
FLAG 1520 928 0
FLAG 1520 720 VE3
FLAG 2544 592 0
FLAG 1232 368 VG
FLAG 1312 416 VS
FLAG 1440 640 0
FLAG 1360 832 VBEfuente
FLAG 2048 544 0
FLAG 1776 496 0
FLAG 1824 192 VCC
FLAG 1904 464 VE4
FLAG 1696 928 0
FLAG 1696 736 VE4
FLAG 1312 608 0
FLAG 3120 384 Vout
SYMBOL njf 96 400 R0
SYMATTR InstName J1
SYMATTR Value J201
SYMBOL res -144 512 R0
SYMATTR InstName R1
SYMATTR Value 1Meg
SYMBOL res 128 544 R0
SYMATTR InstName R2
SYMATTR Value 2k2
SYMBOL res 128 240 R0
SYMATTR InstName R3
SYMATTR Value 6k8
SYMBOL voltage -384 240 R0
SYMATTR InstName V1
SYMATTR Value 9
SYMBOL voltage -400 512 R0
WINDOW 3 24 152 Left 2
WINDOW 123 24 124 Left 2
WINDOW 39 0 0 Left 2
SYMATTR Value SINE(0 100m 1k)
SYMATTR Value2 AC 100m
SYMATTR InstName V2
SYMBOL cap 512 208 R90
WINDOW 0 0 32 VBottom 2
WINDOW 3 32 32 VTop 2
SYMATTR InstName C1
SYMATTR Value 6.8n
SYMBOL cap 608 608 R180
WINDOW 0 24 56 Left 2
WINDOW 3 24 8 Left 2
SYMATTR InstName C3
SYMATTR Value 10n
SYMBOL res 576 96 R0
SYMATTR InstName R4
SYMATTR Value 22k
SYMBOL res 512 496 R90
WINDOW 0 0 56 VBottom 2
WINDOW 3 32 56 VTop 2
SYMATTR InstName R5
SYMATTR Value 47k
SYMBOL potentiometer_standard 576 304 R0
SYMATTR InstName U1
SYMATTR Value Rtot=50K wiper={X}
SYMATTR SpiceLine ""
SYMBOL npn 2896 288 R0
SYMATTR InstName Q1
SYMATTR Value Qtip41c
SYMBOL npn 2736 240 R0
SYMATTR InstName Q2
SYMATTR Value BC548B
SYMBOL res 2944 416 R0
SYMATTR InstName R6
SYMATTR Value 9.1
SYMBOL res 2640 320 R0
SYMATTR InstName R7
SYMATTR Value 10k
SYMBOL res 2640 160 R0
SYMATTR InstName R8
SYMATTR Value 6.8k
SYMBOL npn 2304 288 R0
SYMATTR InstName Q3
SYMATTR Value BC548B
SYMBOL res 2208 176 R0
SYMATTR InstName R9
SYMATTR Value 220k
SYMBOL res 2208 384 R0
SYMATTR InstName R10
SYMATTR Value 68k
SYMBOL res 3152 368 R0
SYMATTR InstName R11
SYMATTR Value 8
SYMBOL cap 3040 400 R270
WINDOW 0 32 32 VTop 2
WINDOW 3 0 32 VBottom 2
SYMATTR InstName C4
SYMATTR Value 100µ
SYMBOL cap 2640 272 R90
WINDOW 0 0 32 VBottom 2
WINDOW 3 32 32 VTop 2
SYMATTR InstName C5
SYMATTR Value 100µ
SYMBOL res 2352 176 R0
SYMATTR InstName R12
SYMATTR Value 2k
SYMBOL npn 1232 784 M0
SYMATTR InstName Q4
SYMATTR Value BC548B
SYMBOL res 1152 624 R0
SYMATTR InstName R13
SYMATTR Value 3.3k
SYMBOL res 1152 256 R0
SYMATTR InstName R14
SYMATTR Value 110k
SYMBOL res 1152 384 R0
SYMATTR InstName R15
SYMATTR Value 470k
SYMBOL res 1296 192 R0
SYMATTR InstName R16
SYMATTR Value 1.1k
SYMBOL cap 1104 352 R90
WINDOW 0 0 32 VBottom 2
WINDOW 3 32 32 VTop 2
SYMATTR InstName C6
SYMATTR Value 100µ
SYMBOL npn 1456 784 R0
SYMATTR InstName Q5
SYMATTR Value BC548B
SYMBOL cap 2448 464 R270
WINDOW 0 32 32 VTop 2
WINDOW 3 0 32 VBottom 2
SYMATTR InstName C7
SYMATTR Value 100µ
SYMBOL res 2528 480 R0
SYMATTR InstName R17
SYMATTR Value 100
SYMBOL cap 2096 352 R270
WINDOW 0 32 32 VTop 2
WINDOW 3 5 25 VBottom 2
SYMATTR InstName C8
SYMATTR Value 100µ
SYMBOL nmos 1264 320 R0
SYMATTR InstName M1
SYMATTR Value 2N7000
SYMBOL res 1296 400 R0
SYMATTR InstName R18
SYMATTR Value 1k
SYMBOL cap 1424 544 R0
SYMATTR InstName C9
SYMATTR Value 100µ
SYMBOL cap 1424 336 R270
WINDOW 0 32 32 VTop 2
WINDOW 3 0 32 VBottom 2
SYMATTR InstName C10
SYMATTR Value 100µ
SYMBOL npn 1840 336 R0
SYMATTR InstName Q6
SYMATTR Value BC548B
SYMBOL cap 1952 480 R270
WINDOW 0 32 32 VTop 2
WINDOW 3 0 32 VBottom 2
SYMATTR InstName C11
SYMATTR Value 100µ
SYMBOL res 2032 448 R0
SYMATTR InstName R19
SYMATTR Value 100
SYMBOL res 1760 256 R0
SYMATTR InstName R20
SYMATTR Value 220k
SYMBOL res 1760 400 R0
SYMATTR InstName R21
SYMATTR Value 68k
SYMBOL res 1888 176 R0
SYMATTR InstName R22
SYMATTR Value 2k
SYMBOL npn 1632 784 R0
SYMATTR InstName Q7
SYMATTR Value BC548B
SYMBOL res 1296 512 R0
SYMATTR InstName R23
SYMATTR Value 1k
TEXT -400 56 Left 2 !.MODEL J201 NJF (VTO=-0.8 BETA=0.94M LAMBDA=2M IS=114.5F RD=1 RS=1\n+ CGD=4.667P CGS=2.992P M=.2271 PB=.5 FC=.5 VTOTC=-2.5M BETATCE=-.5\n+ KF=604.2E-18)
TEXT -424 408 Left 2 !.ac dec 1000 1 1Meg
TEXT -224 248 Left 2 !.op
TEXT -392 16 Left 2 !.include potentiometer_standard.lib
TEXT -288 336 Left 2 !.step param X list 0 0.25 0.5 0.75 1
TEXT 3328 616 Left 2 !.MODEL Qtip41c npn\n+IS=7.55826e-11 BF=260.542 NF=1.11221 VAF=100\n+IKF=0.526814 ISE=1e-08 NE=2.18072 BR=26.0542\n+NR=1.5 VAR=1000 IKR=3.54059 ISC=1e-08\n+NC=1.63849 RB=4.56157 IRB=0.1 RBM=0.1\n+RE=0.0162111 RC=0.0810556 XTB=0.1 XTI=1\n+EG=1.206 CJE=1.93296e-10 VJE=0.4 MJE=0.259503\n+TF=1e-08 XTF=4.06972 VTF=7.1157 ITF=0.001\n+CJC=1.09657e-10 VJC=0.730921 MJC=0.23 XCJC=0.803085\n+FC=0.8 CJS=0 VJS=0.75 MJS=0.5\n+TR=9.01013e-08 PTF=0 KF=0 AF=1\n* Model generated on Dec 27, 2003\n* Model format: PSpice
TEXT 3336 424 Left 2 !.model BC548B   NPN(Is=7.049f Xti=3 Eg=1.11 Vaf=62.79 Bf=374.6 Ise=68f Ne=1.576\n+               Ikf=81.57m Nk=.4767 Xtb=1.5 Br=1 Isc=12.4f Nc=1.835 Ikr=3.924\n+               Rc=.9747 Cjc=5.25p Mjc=.3147 Vjc=.5697 Fc=.5 Cje=11.5p\n+               Mje=.6715 Vje=.5 Tr=10n Tf=410.2p Itf=1.491 Xtf=40.06 Vtf=10)\n*                               PHILIPS                         pid=bc546b      case=TO92\n*                               91-07-31 dsq
TEXT 3336 224 Left 2 !.MODEL 2N7000 NMOS LEVEL=1 IS=1e-32\n+VTO=2.236 LAMBDA=0 KP=0.0932174\n+CGSO=1.79115e-07 CGDO=1.0724e-11
