Version 4
SHEET 1 1232 776
WIRE 736 80 592 80
WIRE 592 112 592 80
WIRE 736 112 736 80
WIRE 448 224 368 224
WIRE 592 224 592 192
WIRE 592 224 512 224
WIRE -384 256 -384 224
WIRE 144 256 144 208
WIRE 592 320 592 224
WIRE -384 352 -384 336
WIRE 144 368 144 336
WIRE 368 368 368 224
WIRE 368 368 144 368
WIRE 1024 368 640 368
WIRE 1152 368 1088 368
WIRE 144 400 144 368
WIRE -224 464 -400 464
WIRE -128 464 -224 464
WIRE 96 464 -128 464
WIRE 368 512 368 368
WIRE 416 512 368 512
WIRE 592 512 592 400
WIRE 592 512 496 512
WIRE -400 528 -400 464
WIRE -128 528 -128 464
WIRE 592 544 592 512
WIRE 144 560 144 496
WIRE 592 640 592 608
WIRE -400 688 -400 608
WIRE -128 688 -128 608
WIRE -128 688 -400 688
WIRE 144 688 144 640
WIRE 144 688 -128 688
WIRE 144 736 144 688
FLAG 144 736 0
FLAG -384 352 0
FLAG -384 224 VCC
FLAG 144 208 VCC
FLAG -224 464 Vin
FLAG 592 640 0
FLAG 1152 368 Vout
FLAG 736 112 0
SYMBOL njf 96 400 R0
SYMATTR InstName J1
SYMATTR Value J201
SYMBOL res -144 512 R0
SYMATTR InstName R1
SYMATTR Value 1Meg
SYMBOL res 128 544 R0
SYMATTR InstName R2
SYMATTR Value 2k2
SYMBOL res 128 240 R0
SYMATTR InstName R3
SYMATTR Value 6k8
SYMBOL voltage -384 240 R0
SYMATTR InstName V1
SYMATTR Value 9
SYMBOL voltage -400 512 R0
WINDOW 3 24 152 Left 2
WINDOW 123 24 124 Left 2
WINDOW 39 0 0 Left 2
SYMATTR Value SINE(0 100m 10k)
SYMATTR Value2 AC 100m
SYMATTR InstName V2
SYMBOL cap 512 208 R90
WINDOW 0 0 32 VBottom 2
WINDOW 3 32 32 VTop 2
SYMATTR InstName C1
SYMATTR Value 6.8n
SYMBOL cap 1088 352 R90
WINDOW 0 0 32 VBottom 2
WINDOW 3 32 32 VTop 2
SYMATTR InstName C2
SYMATTR Value 47n
SYMBOL cap 608 608 R180
WINDOW 0 24 56 Left 2
WINDOW 3 24 8 Left 2
SYMATTR InstName C3
SYMATTR Value 10n
SYMBOL res 576 96 R0
SYMATTR InstName R4
SYMATTR Value 22k
SYMBOL res 512 496 R90
WINDOW 0 0 56 VBottom 2
WINDOW 3 32 56 VTop 2
SYMATTR InstName R5
SYMATTR Value 47k
SYMBOL potentiometer_standard 576 304 R0
SYMATTR InstName U1
SYMATTR Value Rtot=50K wiper={X}
TEXT -400 56 Left 2 !.MODEL J201 NJF (VTO=-0.8 BETA=0.94M LAMBDA=2M IS=114.5F RD=1 RS=1\n+ CGD=4.667P CGS=2.992P M=.2271 PB=.5 FC=.5 VTOTC=-2.5M BETATCE=-.5\n+ KF=604.2E-18)
TEXT -424 408 Left 2 !.tran 0 1m 800u
TEXT -224 248 Left 2 !.op
TEXT -392 16 Left 2 !.include potentiometer_standard.lib
TEXT -288 336 Left 2 !.step param X list 0 0.25 0.5 0.75 1
TEXT 944 120 Left 2 ;.ac dec 1000 1 1Meg
