Version 4
SHEET 1 1732 680
WIRE 432 0 432 -48
WIRE 432 0 288 0
WIRE 592 0 432 0
WIRE 288 48 288 0
WIRE 592 48 592 0
WIRE 128 80 128 32
WIRE 592 160 592 128
WIRE 592 176 592 160
WIRE 784 176 592 176
WIRE 896 176 848 176
WIRE 944 176 896 176
WIRE 128 192 128 160
WIRE 592 208 592 176
WIRE 160 288 48 288
WIRE 256 288 224 288
WIRE 288 288 288 128
WIRE 288 288 256 288
WIRE 544 288 288 288
WIRE 592 320 592 304
WIRE 944 320 944 176
WIRE 592 352 592 320
WIRE 752 352 592 352
WIRE 1216 352 1152 352
WIRE 1280 352 1216 352
WIRE 1520 352 1440 352
WIRE 1584 352 1520 352
WIRE 288 368 288 288
WIRE 592 384 592 352
WIRE 1152 384 1152 352
WIRE 1280 384 1280 352
WIRE 1440 384 1440 352
WIRE 1584 384 1584 352
WIRE 48 400 48 368
WIRE 752 400 752 352
WIRE 1152 512 1152 464
WIRE 1216 512 1152 512
WIRE 1280 512 1280 448
WIRE 1280 512 1216 512
WIRE 1440 512 1440 464
WIRE 1520 512 1440 512
WIRE 1584 512 1584 448
WIRE 1584 512 1520 512
WIRE 48 528 48 480
WIRE 288 528 288 448
WIRE 288 528 48 528
WIRE 432 528 288 528
WIRE 592 528 592 464
WIRE 592 528 432 528
WIRE 752 528 752 464
WIRE 752 528 592 528
WIRE 944 528 944 400
WIRE 944 528 752 528
WIRE 432 544 432 528
WIRE 1216 544 1216 512
WIRE 1520 544 1520 512
FLAG 432 -48 VDD
FLAG 128 192 0
FLAG 128 32 VDD
FLAG 432 544 0
FLAG 592 160 D
FLAG 592 320 S
FLAG 1216 544 0
FLAG 1520 544 0
FLAG 1216 352 PuntaIn
FLAG 256 288 PuntaIn
FLAG 1520 352 PuntaOut
FLAG 896 176 PuntaOut
SYMBOL res 576 32 R0
SYMATTR InstName RD
SYMATTR Value 4.7k
SYMBOL res 272 32 R0
SYMATTR InstName RG1
SYMATTR Value 820k
SYMBOL res 272 352 R0
SYMATTR InstName RG2
SYMATTR Value 100k
SYMBOL res 576 368 R0
SYMATTR InstName RS
SYMATTR Value 1k
SYMBOL nmos 544 208 R0
SYMATTR InstName M1
SYMATTR Value BS170
SYMBOL voltage 128 64 R0
WINDOW 123 0 0 Left 2
WINDOW 39 0 0 Left 2
SYMATTR InstName V1
SYMATTR Value 28
SYMBOL cap 736 400 R0
SYMATTR InstName Ca2
SYMATTR Value 100µ
SYMBOL cap 848 160 R90
WINDOW 0 0 32 VBottom 2
WINDOW 3 32 32 VTop 2
SYMATTR InstName Ca3
SYMATTR Value 2µ
SYMBOL res 928 304 R0
SYMATTR InstName RL
SYMATTR Value 10k
SYMBOL res 32 272 R0
SYMATTR InstName Rgen
SYMATTR Value 50
SYMBOL voltage 48 384 R0
WINDOW 123 24 124 Left 2
WINDOW 39 0 0 Left 2
SYMATTR InstName vs
SYMATTR Value SINE(0 15m 5k)
SYMBOL cap 224 272 R90
WINDOW 0 0 32 VBottom 2
WINDOW 3 32 32 VTop 2
SYMATTR InstName Ca1
SYMATTR Value 2µ
SYMBOL res 1136 368 R0
SYMATTR InstName R1
SYMATTR Value 1MEG
SYMBOL cap 1264 384 R0
SYMATTR InstName C1
SYMATTR Value 200p
SYMBOL res 1424 368 R0
SYMATTR InstName R2
SYMATTR Value 1MEG
SYMBOL cap 1568 384 R0
SYMATTR InstName C2
SYMATTR Value 200p
TEXT -264 -24 Left 2 !.lib BS170.sub
TEXT 1200 192 Left 2 !.meas Vomax MAX V(vo) from 0 to 1ms
TEXT 1208 240 Left 2 !.meas Vimax MAX V(G) from 0 to 1ms
TEXT -264 568 Left 2 !.tran 0 1m 0
