Version 4
SHEET 1 2100 680
WIRE 464 -176 336 -176
WIRE 416 -80 208 -80
WIRE 464 -80 464 -176
WIRE 656 -80 512 -80
WIRE 768 -80 656 -80
WIRE 912 -80 832 -80
WIRE 928 -80 912 -80
WIRE 208 -48 208 -80
WIRE 656 -32 656 -80
WIRE 928 -32 928 -80
WIRE 32 32 -224 32
WIRE 112 32 32 32
WIRE 160 32 112 32
WIRE 208 128 208 48
WIRE 336 128 336 -176
WIRE 336 128 208 128
WIRE 496 128 496 -32
WIRE 496 128 336 128
WIRE 656 128 656 48
WIRE 816 128 656 128
WIRE 928 128 928 48
WIRE -224 144 -224 32
WIRE 656 160 656 128
WIRE 816 160 816 128
WIRE 32 192 32 32
WIRE 208 192 208 128
WIRE 336 224 336 128
WIRE 656 304 656 240
WIRE 816 304 816 224
WIRE 816 304 656 304
WIRE 1040 336 992 336
WIRE 1104 336 1040 336
WIRE 1328 336 1264 336
WIRE 1408 336 1328 336
WIRE -224 352 -224 224
WIRE 32 352 32 272
WIRE 208 352 208 272
WIRE 336 352 336 288
WIRE 656 352 656 304
WIRE 992 368 992 336
WIRE 1104 368 1104 336
WIRE 1264 368 1264 336
WIRE 1408 368 1408 336
WIRE 1104 432 1104 416
WIRE 992 480 992 448
WIRE 1040 480 992 480
WIRE 1104 480 1104 432
WIRE 1104 480 1040 480
WIRE 1264 480 1264 448
WIRE 1328 480 1264 480
WIRE 1408 480 1408 432
WIRE 1408 480 1328 480
WIRE 1040 512 1040 480
WIRE 1328 512 1328 480
FLAG 32 352 0
FLAG 208 352 0
FLAG 656 352 0
FLAG 336 352 0
FLAG 928 128 0
FLAG 912 -80 vo
FLAG -224 352 0
FLAG 112 32 vi
FLAG 1040 512 0
FLAG 1328 512 0
FLAG 1040 336 vi
FLAG 1328 336 vo
SYMBOL res 48 288 R180
WINDOW 0 36 76 Left 2
WINDOW 3 36 40 Left 2
SYMATTR InstName RG
SYMATTR Value 1MEG
SYMBOL res 192 176 R0
SYMATTR InstName RS
SYMATTR Value 1K
SYMBOL nmos4 416 -32 R270
SYMATTR InstName M2
SYMATTR Value mosfet2
SYMBOL res 640 -48 R0
SYMATTR InstName RD
SYMATTR Value 4.7k
SYMBOL voltage 656 144 R0
SYMATTR InstName VCC
SYMATTR Value 10
SYMBOL nmos 160 -48 R0
SYMATTR InstName M1
SYMATTR Value mosfet1
SYMBOL cap 320 224 R0
SYMATTR InstName CG
SYMATTR Value 1µ
SYMBOL cap 800 160 R0
SYMATTR InstName Ccc
SYMATTR Value 0.1µ
SYMBOL cap 832 -96 R90
WINDOW 0 0 32 VBottom 2
WINDOW 3 32 32 VTop 2
SYMATTR InstName Cl
SYMATTR Value 1µ
SYMBOL res 912 -48 R0
SYMATTR InstName RL
SYMATTR Value 4.7k
SYMBOL voltage -224 128 R0
WINDOW 123 0 0 Left 2
WINDOW 39 0 0 Left 2
SYMATTR InstName V1
SYMATTR Value SINE(0 15m 5k)
SYMBOL res 976 352 R0
SYMATTR InstName R1
SYMATTR Value 1MEG
SYMBOL cap 1088 368 R0
SYMATTR InstName C1
SYMATTR Value 200p
SYMBOL res 1248 352 R0
SYMATTR InstName R2
SYMATTR Value 1MEG
SYMBOL cap 1392 368 R0
SYMATTR InstName C2
SYMATTR Value 200p
TEXT 1016 -112 Left 2 !.model mosfet1 nmos( \n+VTO=-1 \n+KP=15m \n+LAMBDA=0 \n+GAMMA=0
TEXT 1016 56 Left 2 !.model mosfet2 nmos( \n+VTO=-1 \n+KP=200m \n+LAMBDA=0 \n+GAMMA=0
TEXT -256 376 Left 2 !.tran 0 7m 6.5m
TEXT 48 432 Left 2 !.FOUR 5khz 10 V(vo)
